*Heading
 Two-dimensional overhead hoist frame
** Job name: Frame Model name: standard
** Generated by: Abaqus/CAE 6.13-1
*Preprint, echo=YES, model=YES, history=YES, contact=YES
**
** PARTS
**
*Part, name=Frame
*Node
      1,      1.51352,   0.71351999
      2,   1.28240001,   0.71351999
      3,  0.906199992,  0.441119999
      4,  0.763520002, -1.1101057e-08
      5,  0.906199992, -0.441119999
      6,   1.28240001,  -0.71351999
      7,      1.51352,  -0.71351999
      8,      1.51352, -0.475679994
      9,   1.35943997, -0.475679994
     10,   1.10863996, -0.294080019
     11,      1.01352, -7.40070494e-09
     12,   1.10863996,  0.294079989
     13,   1.35943997,  0.475679994
     14,      1.51352,  0.475679994
     15,     -1.51352,  0.475679994
     16,  -1.35943997,  0.475679994
     17,  -1.10863996,  0.294079989
     18,     -1.01352, -3.17340132e-09
     19,  -1.10863996, -0.294079989
     20,  -1.35943997, -0.475679994
** ... 1259 like lines cut
*Element, type=CPS3
 1, 659, 638, 373
 2, 615, 538, 316
 3, 562, 545, 340
 4, 426, 485, 539
 5, 631, 606, 356
 6, 610, 577, 361
 7, 617, 366, 583
 8, 657, 367, 516
 9, 718, 698, 324
10, 767, 372, 695
11, 761, 654, 734
12, 773, 313, 501
13, 778, 614, 347
14, 534, 788, 317
584, 1042, 1275,  814
585, 1156, 1086, 1110
586,  841, 1277, 1043
587, 1242, 1002, 1056
588, 1186,  834, 1205
589,  865, 1122, 1163
** ... 8 like lines cut
*Element, type=CPS4R
 15,  29, 387, 156,   1
 16, 156, 387, 400, 155
 17, 398, 401, 153, 154
 18, 399, 402, 151, 152
 19, 149, 406, 410, 148
 20, 150, 406, 149,  14
 21,  30, 388, 387,  29
 22, 392, 600, 288, 388
 23, 293, 498, 567, 594
 24, 549, 496, 293, 594
 25, 146, 412, 413,  13
 26, 411, 147, 148, 410
 27, 389,  32,  33, 391
 28, 389, 391, 694, 287
 29, 626, 642, 667, 662
 30, 555, 490, 299, 558
 31, 298, 519, 451, 747
 32, 451, 456, 145,  13
 33, 464, 481, 142, 143
 34, 139, 140, 459, 559
** ... 1101 like lines cut
*Nset, nset=polygon, generate
   1,  284,    1
*Elset, elset=polygon
  15,  16,  17,  18,  19,  20,  21,  25,  26,  27,  32,  33,  34,  35,  37,  40
  42,  43,  44,  45,  55,  57,  59,  60,  62,  63,  64,  65,  72,  76,  77,  84
  85,  88,  98, 104, 107, 108, 109, 111, 119, 120, 121, 122, 123, 124, 126, 127
 131, 132, 134, 135, 136, 137, 138, 139, 142, 143, 144, 145, 146, 152, 153, 157
 161, 162, 163, 164, 167, 169, 175, 195, 201, 205, 206, 211, 220, 221, 222, 231
 233, 234, 236, 237, 238, 239, 240, 241, 242, 243, 244, 246, 248, 249, 250, 251
 252, 253, 254, 255, 256, 260, 264, 265, 267, 268, 269, 270, 271, 272, 273, 274
 275, 276, 277, 278, 279, 280, 281, 282, 286, 289, 290, 291, 294, 299, 305, 314
 320, 328, 329, 330, 336, 341, 347, 365, 572, 573, 598, 603, 604, 608, 610, 612
 613, 614, 621, 624, 625, 626, 627, 633, 634, 636, 640, 644, 645, 647, 649, 651
 655, 656, 657, 659, 660, 661, 663, 664, 665, 668, 669, 670, 678, 679, 680, 682
 683, 689, 691, 692, 701, 702, 703, 705, 707, 708, 710, 711, 719, 720, 723, 724
 725, 730, 734, 735, 739, 743, 744, 746, 747, 753, 763, 769, 775, 776, 777, 790
 793, 794, 810, 811, 818, 819, 821, 822, 823, 824, 826, 827, 829, 830, 831, 832
 833, 834, 835, 836, 837, 838, 839, 840, 841, 842, 843, 844, 845, 846, 847, 848
 849, 850, 851, 852, 853, 855, 856, 857, 858, 859, 860, 861, 862, 863, 864, 865
 866, 869, 875, 877, 883, 889, 894, 895, 896, 899, 904, 911, 917, 918, 919, 922
 923, 937, 943, 978
*Nset, nset=everything, generate
    1,  1279,     1
*Elset, elset=everything, generate
    1,  1149,     1
** Region: (Section-3:everything)
*Elset, elset=_I1, internal
    1,    2,    3,    4,    5,    6,    7,    8,    9,   10,   11,   12,   13,   14,   22,   23
   24,   28,   29,   30,   31,   36,   38,   39,   41,   46,   47,   48,   49,   50,   51,   52
   53,   54,   56,   58,   61,   66,   67,   68,   69,   70,   71,   73,   74,   75,   78,   79
   80,   81,   82,   83,   86,   87,   89,   90,   91,   92,   93,   94,   95,   96,   97,   99
  100,  101,  102,  103,  105,  106,  110,  112,  113,  114,  115,  116,  117,  118,  125,  128
  129,  130,  133,  140,  141,  147,  148,  149,  150,  151,  154,  155,  156,  158,  159,  160
  165,  166,  168,  170,  171,  172,  173,  174,  176,  177,  178,  179,  180,  181,  182,  183
  184,  185,  186,  187,  188,  189,  190,  191,  192,  193,  194,  196,  197,  198,  199,  200
  202,  203,  204,  207,  208,  209,  210,  212,  213,  214,  215,  216,  217,  218,  219,  223
  224,  225,  226,  227,  228,  229,  230,  232,  235,  245,  247,  257,  258,  259,  261,  262
  263,  266,  283,  284,  285,  287,  288,  292,  293,  295,  296,  297,  298,  300,  301,  302
  303,  304,  306,  307,  308,  309,  310,  311,  312,  313,  315,  316,  317,  318,  319,  321
  322,  323,  324,  325,  326,  327,  331,  332,  333,  334,  335,  337,  338,  339,  340,  342
  343,  344,  345,  346,  348,  349,  350,  351,  352,  353,  354,  355,  356,  357,  358,  359
  360,  361,  362,  363,  364,  366,  367,  368,  369,  370,  371,  372,  373,  374,  375,  376
  377,  378,  379,  380,  381,  382,  383,  384,  385,  386,  387,  388,  389,  390,  391,  392
  393,  394,  395,  396,  397,  398,  399,  400,  401,  402,  403,  404,  405,  406,  407,  408
  409,  410,  411,  412,  413,  414,  415,  416,  417,  418,  419,  420,  421,  422,  423,  424
  425,  426,  427,  428,  429,  430,  431,  432,  433,  434,  435,  436,  437,  438,  439,  440
  441,  442,  443,  444,  445,  446,  447,  448,  449,  450,  451,  452,  453,  454,  455,  456
** ... 35 like lines cut
** Section: Section-3
*Solid Section, elset=_I1, material=Steel
1.,
** Region: (Section-3:everything), (Beam Orientation:polygon)
*Elset, elset=_I2, internal
  15,  16,  17,  18,  19,  20,  21,  25,  26,  27,  32,  33,  34,  35,  37,  40
  42,  43,  44,  45,  55,  57,  59,  60,  62,  63,  64,  65,  72,  76,  77,  84
  85,  88,  98, 104, 107, 108, 109, 111, 119, 120, 121, 122, 123, 124, 126, 127
 131, 132, 134, 135, 136, 137, 138, 139, 142, 143, 144, 145, 146, 152, 153, 157
 161, 162, 163, 164, 167, 169, 175, 195, 201, 205, 206, 211, 220, 221, 222, 231
 233, 234, 236, 237, 238, 239, 240, 241, 242, 243, 244, 246, 248, 249, 250, 251
 252, 253, 254, 255, 256, 260, 264, 265, 267, 268, 269, 270, 271, 272, 273, 274
 275, 276, 277, 278, 279, 280, 281, 282, 286, 289, 290, 291, 294, 299, 305, 314
 320, 328, 329, 330, 336, 341, 347, 365, 572, 573, 598, 603, 604, 608, 610, 612
 613, 614, 621, 624, 625, 626, 627, 633, 634, 636, 640, 644, 645, 647, 649, 651
 655, 656, 657, 659, 660, 661, 663, 664, 665, 668, 669, 670, 678, 679, 680, 682
 683, 689, 691, 692, 701, 702, 703, 705, 707, 708, 710, 711, 719, 720, 723, 724
 725, 730, 734, 735, 739, 743, 744, 746, 747, 753, 763, 769, 775, 776, 777, 790
 793, 794, 810, 811, 818, 819, 821, 822, 823, 824, 826, 827, 829, 830, 831, 832
 833, 834, 835, 836, 837, 838, 839, 840, 841, 842, 843, 844, 845, 846, 847, 848
 849, 850, 851, 852, 853, 855, 856, 857, 858, 859, 860, 861, 862, 863, 864, 865
 866, 869, 875, 877, 883, 889, 894, 895, 896, 899, 904, 911, 917, 918, 919, 922
 923, 937, 943, 978
** Section: Section-3
*Solid Section, elset=_I2, material=Steel
1.,
*End Part
**  
*Part, name=plane
*Node
      1,      3.02704, -0.727790415
      2,   3.00705957, -0.727790415
      3,   2.98707914, -0.727790415
      4,   2.96709871, -0.727790415
      5,   2.94711804, -0.727790415
      6,   2.92713761, -0.727790415
      7,   2.90715718, -0.727790415
      8,   2.88717675, -0.727790415
      9,   2.86719632, -0.727790415
     10,   2.84721589, -0.727790415
     11,   2.82723546, -0.727790415
     12,   2.80725479, -0.727790415
     13,   2.78727436, -0.727790415
     14,   2.76729393, -0.727790415
     15,    2.7473135, -0.727790415
     16,   2.72733307, -0.727790415
     17,   2.70735264, -0.727790415
     18,   2.68737221, -0.727790415
     19,   2.66739178, -0.727790415
     20,   2.64741111, -0.727790415
** ... 284 like lines cut
*Element, type=B21
  1,   1,   2
  2,   2,   3
  3,   3,   4
  4,   4,   5
  5,   5,   6
  6,   6,   7
  7,   7,   8
  8,   8,   9
  9,   9,  10
 10,  10,  11
 11,  11,  12
 12,  12,  13
 13,  13,  14
 14,  14,  15
 15,  15,  16
 16,  16,  17
 17,  17,  18
 18,  18,  19
 19,  19,  20
 20,  20,  21
** ... 283 like lines cut
*Nset, nset=planar, generate
   1,  304,    1
*Elset, elset=planar, generate
   1,  303,    1
** Section: plane  Profile: Profile-1
*Beam Section, elset=planar, material=Rigidbody, temperature=GRADIENTS, section=BOX
1., 1., 0.25, 0.25, 0.25, 0.25
0.,0.,-1.
*End Part
**  
*Part, name=planetop
*Node
      1,      3.02704,  0.727790415
      2,   2.99706936,  0.727790415
      3,   2.96709871,  0.727790415
      4,   2.93712783,  0.727790415
      5,   2.90715718,  0.727790415
      6,   2.87718654,  0.727790415
      7,   2.84721589,  0.727790415
      8,   2.81724524,  0.727790415
      9,   2.78727436,  0.727790415
     10,   2.75730371,  0.727790415
     11,   2.72733307,  0.727790415
     12,   2.69736242,  0.727790415
     13,   2.66739178,  0.727790415
     14,   2.63742089,  0.727790415
     15,   2.60745025,  0.727790415
     16,    2.5774796,  0.727790415
     17,   2.54750896,  0.727790415
     18,   2.51753831,  0.727790415
     19,   2.48756742,  0.727790415
     20,   2.45759678,  0.727790415
** ... 183 like lines cut
*Element, type=B21
  1,   1,   2
  2,   2,   3
  3,   3,   4
  4,   4,   5
  5,   5,   6
  6,   6,   7
  7,   7,   8
  8,   8,   9
  9,   9,  10
 10,  10,  11
 11,  11,  12
 12,  12,  13
 13,  13,  14
 14,  14,  15
 15,  15,  16
 16,  16,  17
 17,  17,  18
 18,  18,  19
 19,  19,  20
 20,  20,  21
** ... 182 like lines cut
*Nset, nset=planar2, generate
   1,  203,    1
*Elset, elset=planar2, generate
   1,  202,    1
** Section: plane  Profile: Profile-1
*Beam Section, elset=planar2, material=Rigidbody, temperature=GRADIENTS, section=BOX
1., 1., 0.25, 0.25, 0.25, 0.25
0.,0.,-1.
*End Part
**  
**
** ASSEMBLY
**
*Assembly, name=Assembly
**  
*Instance, name=Frame-1, part=Frame
*End Instance
**  
*Instance, name=plane-1, part=plane
*End Instance
**  
*Instance, name=planetop-1, part=planetop
*End Instance
**  
*Nset, nset=Set-5, instance=Frame-1
  27,  28, 271, 272, 273, 274, 275, 276, 277
*Elset, elset=Set-5, instance=Frame-1
 734, 735, 739, 743, 865, 869, 875, 877
*Nset, nset=botedge, instance=Frame-1
   6,   7,  22,  23,  92,  93,  94,  95,  96,  97,  98, 208, 209, 210, 211, 212
 213, 214
*Elset, elset=botedge, instance=Frame-1
  55,  57,  59, 119, 253, 286, 289, 290, 665, 670, 705, 707, 708, 841, 842, 843
*Nset, nset=leftedge, instance=Frame-1
  15,  21,  22,  28, 201, 202, 203, 204, 205, 206, 207, 278, 279, 280, 281, 282
 283, 284
*Elset, elset=leftedge, instance=Frame-1
 612, 659, 661, 668, 669, 705, 744, 746, 747, 838, 839, 840, 865, 866, 883, 889
*Nset, nset=rightedge, instance=Frame-1
   1,   7,   8,  14,  99, 100, 101, 102, 103, 104, 105, 150, 151, 152, 153, 154
 155, 156
*Elset, elset=rightedge, instance=Frame-1
  15,  16,  17,  18,  20,  59,  60,  62, 136, 137, 260, 279, 280, 281, 299, 305
*Nset, nset=topedge, instance=Frame-1
   1,   2,  27,  28,  29,  30,  31,  32,  33,  34,  35, 271, 272, 273, 274, 275
 276, 277
*Elset, elset=topedge, instance=Frame-1
  15,  21,  27,  72,  76, 236, 291, 294, 734, 735, 739, 743, 865, 869, 875, 877
*Elset, elset=_Surf-2_S4, internal, instance=Frame-1
  42,  43,  77,  84,  98, 107, 144, 152, 163, 175, 195, 238, 240, 244, 246, 248
 264, 265, 271, 613, 625, 633, 640, 644, 645, 649, 657, 680, 682, 683, 691, 720
 723, 724, 725, 790, 793, 811, 819, 823, 845, 849, 853, 856, 859, 860, 863, 864
 978,
*Elset, elset=_Surf-2_S2, internal, instance=Frame-1
  37,  40,  85,  88, 104, 108, 109, 139, 142, 143, 145, 153, 157, 161, 162, 164
 167, 220, 222, 234, 239, 241, 242, 243, 267, 270, 272, 273, 274, 282, 314, 320
 328, 603, 604, 608, 614, 621, 624, 626, 634, 636, 647, 651, 655, 656, 678, 679
 689, 710, 711, 719, 730, 769, 775, 776, 777, 794, 810, 818, 826, 827, 831, 832
 833, 846, 847, 848, 851, 852, 855, 857, 858, 861, 896, 899, 904, 911, 919, 922
 923, 937
*Elset, elset=_Surf-2_S3, internal, instance=Frame-1
  32,  33,  44, 120, 121, 122, 123, 124, 132, 134, 135, 169, 205, 206, 221, 231
 237, 249, 254, 255, 268, 329, 330, 336, 341, 365, 701, 702, 763, 821, 822, 829
 834, 844, 895, 917, 943
*Elset, elset=_Surf-2_S1, internal, instance=Frame-1
  34,  35,  45, 111, 126, 127, 131, 146, 201, 211, 233, 250, 251, 252, 256, 269
 275, 276, 277, 347, 572, 573, 627, 692, 703, 753, 830, 835, 836, 850, 862, 918
*Surface, type=ELEMENT, name=Surf-2
_Surf-2_S4, S4
_Surf-2_S2, S2
_Surf-2_S3, S3
_Surf-2_S1, S1
*Elset, elset=_plane_SPOS, internal, instance=plane-1, generate
   1,  303,    1
*Surface, type=ELEMENT, name=plane
_plane_SPOS, SPOS
*Elset, elset=_planetop_SPOS, internal, instance=planetop-1, generate
   1,  202,    1
*Surface, type=ELEMENT, name=planetop
_planetop_SPOS, SPOS
*Surface, type=NODE, name=Frame-1_polygon_CNS_, internal
Frame-1.polygon, 1.
*End Assembly
** 
** MATERIALS
** 
*Material, name=Rigidbody
*Elastic
 2e+07,
*Material, name=Steel
*Elastic
200000., 0.3
** 
** INTERACTION PROPERTIES
** 
*Surface Interaction, name=interior
1.,
*Surface Behavior, pressure-overclosure=HARD
** 
** CONTACT INITIALIZATION DATA
** 
*Contact Initialization Data, name=CInit-1
** 
** INTERACTIONS
** 
** Interaction: planeandframe
*Contact Pair, interaction=interior, adjust=botedge, tied
Frame-1_polygon_CNS_, plane
** Interaction: planetopandframe
*Contact Pair, interaction=interior, adjust=topedge, tied
Frame-1_polygon_CNS_, planetop
** ----------------------------------------------------------------
** 
** STEP: Apply load
** 
*Step, name="Apply load", nlgeom=NO, inc=10000
Description
*Static
0.01, 50., 2e-05, 0.025
** 
** BOUNDARY CONDITIONS
** 
** Name: leftedge Type: Symmetry/Antisymmetry/Encastre
*Boundary
leftedge, XSYMM
** Name: planelock Type: Displacement/Rotation
*Boundary
plane-1.planar, 1, 1
plane-1.planar, 2, 2
plane-1.planar, 6, 6
** Name: rightedge Type: Symmetry/Antisymmetry/Encastre
*Boundary
rightedge, XSYMM
** Name: velocity Type: Velocity/Angular velocity
*Boundary, type=VELOCITY
planetop-1.planar2, 1, 1
planetop-1.planar2, 2, 2, -1.
planetop-1.planar2, 6, 6
** 
** OUTPUT REQUESTS
** 
*Restart, write, frequency=0
** 
** FIELD OUTPUT: F-Output-1
** 
*Output, field, variable=PRESELECT, frequency=100
** 
** HISTORY OUTPUT: H-Output-1
** 
*Output, history, variable=PRESELECT, frequency=100
*End Step
