*Heading
** Job name: Job-1 Model name: standard
** Generated by: Abaqus/CAE 6.13-1
*Preprint, echo=NO, model=NO, history=NO, contact=NO
**
** PARTS
**
*Part, name=Frame
*Node
      1,      1.51352,   0.71351999
      2,   1.28240001,   0.71351999
      3,  0.906199992,  0.441119999
      4,  0.763520002, -1.1101057e-08
      5,  0.906199992, -0.441119999
      6,   1.28240001,  -0.71351999
      7,      1.51352,  -0.71351999
      8,      1.51352, -0.475679994
      9,   1.35943997, -0.475679994
     10,   1.10863996, -0.294080019
     11,      1.01352, -7.40070494e-09
     12,   1.10863996,  0.294079989
     13,   1.35943997,  0.475679994
     14,      1.51352,  0.475679994
     15,     -1.51352,  0.475679994
     16,  -1.35943997,  0.475679994
     17,  -1.10863996,  0.294079989
     18,     -1.01352, -3.17340132e-09
     19,  -1.10863996, -0.294079989
     20,  -1.35943997, -0.475679994
** ... 602 like lines cut
*Element, type=CPS3
1, 351, 344, 408
2, 404, 358, 282
3, 405, 352, 347
4, 356, 279, 280
5, 400, 366, 383
6, 382, 345, 268
271, 570, 514, 519
272, 612, 556, 536
273, 573, 526, 571
274, 618, 567, 619
275, 559, 595, 622
276, 550, 622, 520
*Element, type=CPS4R
  7,  29,  30, 189, 390
  8, 189, 325, 320, 390
  9, 100, 260, 261,  99
 10, 214, 215,  43,  44
 11,  94, 254, 255,  93
 12, 223, 224,  52,  53
 13, 248, 249,  88,  89
 14, 232, 233,  61,  62
 15, 235, 236,  70,  71
 16, 321,   9, 227, 341
 17,  82, 242, 243,  81
 18, 205, 206,  34,  35
 19,   2,  33, 194, 389
 20, 389, 195,  32,   2
 21, 322, 265, 320, 325
 22, 108, 390, 320, 107
 23,   3,  42, 198, 388
 24, 388, 199,  41,   3
 25, 198, 298, 329, 388
 26, 199, 201,  40,  41
** ... 500 like lines cut
*Nset, nset=polygon, generate
   1,  188,    1
*Elset, elset=polygon
   7,   9,  10,  11,  12,  13,  14,  15,  17,  18,  19,  20,  22,  23,  24,  26
  28,  29,  30,  32,  33,  35,  37,  38,  39,  41,  42,  44,  46,  47,  48,  50
  51,  53,  55,  56,  57,  59,  60,  62,  63,  65,  69,  70,  74,  75,  78,  79
  83,  84,  86,  87,  88,  89,  91,  93,  94,  95,  96,  99, 100, 103, 104, 105
 106, 108, 110, 111, 113, 114, 117, 121, 122, 124, 125, 128, 131, 132, 134, 135
 138, 139, 140, 141, 143, 144, 151, 152, 159, 165, 277, 278, 280, 281, 282, 283
 284, 285, 286, 288, 290, 292, 293, 295, 297, 299, 301, 303, 304, 305, 308, 309
 310, 311, 312, 313, 315, 316, 319, 320, 322, 325, 327, 329, 331, 334, 336, 338
 340, 342, 343, 346, 348, 349, 350, 353, 354, 355, 357, 359, 361, 363, 364, 365
 366, 367, 368, 369, 370, 371, 372, 373, 374, 375, 376, 378, 379, 382, 383, 386
 388, 389, 391, 394, 395, 396, 397, 399, 400, 402, 403, 411, 418, 425, 434, 436
 527, 528, 529, 530
*Nset, nset=Set-3, generate
   1,  622,    1
*Elset, elset=Set-3, generate
   1,  532,    1
** Region: (Section-3:Set-3)
*Elset, elset=_I1, internal
   1,   2,   3,   4,   5,   6,   8,  16,  21,  25,  27,  31,  34,  36,  40,  43
  45,  49,  52,  54,  58,  61,  64,  66,  67,  68,  71,  72,  73,  76,  77,  80
  81,  82,  85,  90,  92,  97,  98, 101, 102, 107, 109, 112, 115, 116, 118, 119
 120, 123, 126, 127, 129, 130, 133, 136, 137, 142, 145, 146, 147, 148, 149, 150
 153, 154, 155, 156, 157, 158, 160, 161, 162, 163, 164, 166, 167, 168, 169, 170
 171, 172, 173, 174, 175, 176, 177, 178, 179, 180, 181, 182, 183, 184, 185, 186
 187, 188, 189, 190, 191, 192, 193, 194, 195, 196, 197, 198, 199, 200, 201, 202
 203, 204, 205, 206, 207, 208, 209, 210, 211, 212, 213, 214, 215, 216, 217, 218
 219, 220, 221, 222, 223, 224, 225, 226, 227, 228, 229, 230, 231, 232, 233, 234
 235, 236, 237, 238, 239, 240, 241, 242, 243, 244, 245, 246, 247, 248, 249, 250
 251, 252, 253, 254, 255, 256, 257, 258, 259, 260, 261, 262, 263, 264, 265, 266
 267, 268, 269, 270, 271, 272, 273, 274, 275, 276, 279, 287, 289, 291, 294, 296
 298, 300, 302, 306, 307, 314, 317, 318, 321, 323, 324, 326, 328, 330, 332, 333
 335, 337, 339, 341, 344, 345, 347, 351, 352, 356, 358, 360, 362, 377, 380, 381
 384, 385, 387, 390, 392, 393, 398, 401, 404, 405, 406, 407, 408, 409, 410, 412
 413, 414, 415, 416, 417, 419, 420, 421, 422, 423, 424, 426, 427, 428, 429, 430
 431, 432, 433, 435, 437, 438, 439, 440, 441, 442, 443, 444, 445, 446, 447, 448
 449, 450, 451, 452, 453, 454, 455, 456, 457, 458, 459, 460, 461, 462, 463, 464
 465, 466, 467, 468, 469, 470, 471, 472, 473, 474, 475, 476, 477, 478, 479, 480
 481, 482, 483, 484, 485, 486, 487, 488, 489, 490, 491, 492, 493, 494, 495, 496
 497, 498, 499, 500, 501, 502, 503, 504, 505, 506, 507, 508, 509, 510, 511, 512
 513, 514, 515, 516, 517, 518, 519, 520, 521, 522, 523, 524, 525, 526, 531, 532
** Section: Section-3
*Solid Section, elset=_I1, material=Steel
1.,
** Region: (Section-3:Set-3), (Beam Orientation:polygon)
*Elset, elset=_I2, internal
   7,   9,  10,  11,  12,  13,  14,  15,  17,  18,  19,  20,  22,  23,  24,  26
  28,  29,  30,  32,  33,  35,  37,  38,  39,  41,  42,  44,  46,  47,  48,  50
  51,  53,  55,  56,  57,  59,  60,  62,  63,  65,  69,  70,  74,  75,  78,  79
  83,  84,  86,  87,  88,  89,  91,  93,  94,  95,  96,  99, 100, 103, 104, 105
 106, 108, 110, 111, 113, 114, 117, 121, 122, 124, 125, 128, 131, 132, 134, 135
 138, 139, 140, 141, 143, 144, 151, 152, 159, 165, 277, 278, 280, 281, 282, 283
 284, 285, 286, 288, 290, 292, 293, 295, 297, 299, 301, 303, 304, 305, 308, 309
 310, 311, 312, 313, 315, 316, 319, 320, 322, 325, 327, 329, 331, 334, 336, 338
 340, 342, 343, 346, 348, 349, 350, 353, 354, 355, 357, 359, 361, 363, 364, 365
 366, 367, 368, 369, 370, 371, 372, 373, 374, 375, 376, 378, 379, 382, 383, 386
 388, 389, 391, 394, 395, 396, 397, 399, 400, 402, 403, 411, 418, 425, 434, 436
 527, 528, 529, 530
** Section: Section-3
*Solid Section, elset=_I2, material=Steel
1.,
*End Part
**  
*Part, name=plane
*Node
      1,      3.02704,  -0.71351999
      2,   2.99706936,  -0.71351999
      3,   2.96709871,  -0.71351999
      4,   2.93712783,  -0.71351999
      5,   2.90715718,  -0.71351999
      6,   2.87718654,  -0.71351999
      7,   2.84721589,  -0.71351999
      8,   2.81724524,  -0.71351999
      9,   2.78727436,  -0.71351999
     10,   2.75730371,  -0.71351999
     11,   2.72733307,  -0.71351999
     12,   2.69736242,  -0.71351999
     13,   2.66739178,  -0.71351999
     14,   2.63742089,  -0.71351999
     15,   2.60745025,  -0.71351999
     16,    2.5774796,  -0.71351999
     17,   2.54750896,  -0.71351999
     18,   2.51753831,  -0.71351999
     19,   2.48756742,  -0.71351999
     20,   2.45759678,  -0.71351999
** ... 183 like lines cut
*Element, type=B21
  1,   1,   2
  2,   2,   3
  3,   3,   4
  4,   4,   5
  5,   5,   6
  6,   6,   7
  7,   7,   8
  8,   8,   9
  9,   9,  10
 10,  10,  11
 11,  11,  12
 12,  12,  13
 13,  13,  14
 14,  14,  15
 15,  15,  16
 16,  16,  17
 17,  17,  18
 18,  18,  19
 19,  19,  20
 20,  20,  21
** ... 182 like lines cut
*Nset, nset=Set-2, generate
   1,  203,    1
*Elset, elset=Set-2, generate
   1,  202,    1
** Section: plane  Profile: Profile-1
*Beam Section, elset=Set-2, material=Rigidbody, temperature=GRADIENTS, section=BOX
1., 1., 0.25, 0.25, 0.25, 0.25
0.,0.,-1.
*End Part
**  
*Part, name=planetop
*Node
      1,      3.02704,  0.754871964
      2,   2.99706936,  0.754871964
      3,   2.96709871,  0.754871964
      4,   2.93712783,  0.754871964
      5,   2.90715718,  0.754871964
      6,   2.87718654,  0.754871964
      7,   2.84721589,  0.754871964
      8,   2.81724524,  0.754871964
      9,   2.78727436,  0.754871964
     10,   2.75730371,  0.754871964
     11,   2.72733307,  0.754871964
     12,   2.69736242,  0.754871964
     13,   2.66739178,  0.754871964
     14,   2.63742089,  0.754871964
     15,   2.60745025,  0.754871964
     16,    2.5774796,  0.754871964
     17,   2.54750896,  0.754871964
     18,   2.51753831,  0.754871964
     19,   2.48756742,  0.754871964
     20,   2.45759678,  0.754871964
** ... 183 like lines cut
*Element, type=B21
  1,   1,   2
  2,   2,   3
  3,   3,   4
  4,   4,   5
  5,   5,   6
  6,   6,   7
  7,   7,   8
  8,   8,   9
  9,   9,  10
 10,  10,  11
 11,  11,  12
 12,  12,  13
 13,  13,  14
 14,  14,  15
 15,  15,  16
 16,  16,  17
 17,  17,  18
 18,  18,  19
 19,  19,  20
 20,  20,  21
** ... 182 like lines cut
*Nset, nset=Set-2, generate
   1,  203,    1
*Elset, elset=Set-2, generate
   1,  202,    1
** Section: plane  Profile: Profile-1
*Beam Section, elset=Set-2, material=Rigidbody, temperature=GRADIENTS, section=BOX
1., 1., 0.25, 0.25, 0.25, 0.25
0.,0.,-1.
*End Part
**  
**
** ASSEMBLY
**
*Assembly, name=Assembly
**  
*Instance, name=Frame-1, part=Frame
*End Instance
**  
*Instance, name=plane-1, part=plane
*End Instance
**  
*Instance, name=planetop-1, part=planetop
*End Instance
**  
*Nset, nset=Set-5, instance=plane-1, generate
   1,  203,    1
*Elset, elset=Set-5, instance=plane-1, generate
   1,  202,    1
*Nset, nset=Set-6, instance=Frame-1
 23,
*Nset, nset=Set-7, instance=Frame-1
 6,
*Nset, nset=Set-8, instance=Frame-1
   6,   7,  22,  23,  69,  70,  71,  72, 141, 142, 143, 144
*Elset, elset=Set-8, instance=Frame-1
  15,  50,  59, 139, 140, 288, 313, 316, 319, 397
*Nset, nset=Set-9, instance=Frame-1
   1,   2,  27,  28,  29,  30,  31,  32, 181, 182, 183, 184
*Elset, elset=Set-9, instance=Frame-1
   7,  20,  88,  91, 100, 354, 355, 357, 425, 530
*Nset, nset=left, instance=Frame-1
  15,  21,  22,  28, 137, 138, 139, 140, 185, 186, 187, 188
*Elset, elset=left, instance=Frame-1
 290, 311, 313, 315, 354, 359, 396, 399, 434, 436
*Nset, nset=right, instance=Frame-1
   1,   7,   8,  14,  73,  74,  75,  76, 105, 106, 107, 108
*Elset, elset=right, instance=Frame-1
  22,  59,  60,  62,  63,  86,  88,  89, 143, 165
*Nset, nset=s_Set-3, instance=Frame-1, generate
   1,  622,    1
*Elset, elset=s_Set-3, instance=Frame-1, generate
   1,  532,    1
*Nset, nset=toplane, instance=planetop-1, generate
   1,  203,    1
*Elset, elset=toplane, instance=planetop-1, generate
   1,  202,    1
*Elset, elset=_m_Surf-1_SNEG, internal, instance=plane-1, generate
   1,  202,    1
*Surface, type=ELEMENT, name=m_Surf-1
_m_Surf-1_SNEG, SNEG
*Elset, elset=_m_Surf-2_SPOS, internal, instance=planetop-1, generate
   1,  202,    1
*Surface, type=ELEMENT, name=m_Surf-2
_m_Surf-2_SPOS, SPOS
*Surface, type=NODE, name=s_Set-3_CNS_, internal
s_Set-3, 1.
*End Assembly
** 
** MATERIALS
** 
*Material, name=Rigidbody
*Elastic
 2e+07,
*Material, name=Steel
*Elastic
200000., 0.3
** 
** INTERACTION PROPERTIES
** 
*Surface Interaction, name=IntProp-1
1.,
*Surface Behavior, pressure-overclosure=HARD
** 
** CONTACT INITIALIZATION DATA
** 
*Contact Initialization Data, name=CInit-1
** 
** INTERACTIONS
** 
** Interaction: Int-1
*Contact Pair, interaction=IntProp-1, adjust=Set-8, tied
s_Set-3_CNS_, m_Surf-1
** Interaction: Int-2
*Contact Pair, interaction=IntProp-1, adjust=Set-9, tied
s_Set-3_CNS_, m_Surf-2
** ----------------------------------------------------------------
** 
** STEP: Apply load
** 
*Step, name="Apply load", nlgeom=NO, inc=10000
Description
*Static
0.01, 50., 2e-05, 0.025
** 
** BOUNDARY CONDITIONS
** 
** Name: BC-1 Type: Symmetry/Antisymmetry/Encastre
*Boundary
left, XSYMM
** Name: BC-2 Type: Symmetry/Antisymmetry/Encastre
*Boundary
right, XSYMM
** Name: BC-3 Type: Velocity/Angular velocity
*Boundary, type=VELOCITY
toplane, 2, 2, -10.
** Name: BC-4 Type: Displacement/Rotation
*Boundary
Set-5, 1, 1
Set-5, 2, 2
Set-5, 6, 6
** 
** OUTPUT REQUESTS
** 
*Restart, write, frequency=0
** 
** FIELD OUTPUT: F-Output-1
** 
*Output, field, variable=PRESELECT, frequency=100
** 
** HISTORY OUTPUT: H-Output-1
** 
*Output, history, variable=PRESELECT, frequency=100
*End Step
